
     RDKit          3D

 44 48  0  0  0  0  0  0  0  0999 V2000
    5.3062   -0.1931   -0.8039 C   0  0  0  0  0  0  0  0  0  0  0  0
    4.1287    0.6816   -0.7602 N   0  0  0  0  0  0  0  0  0  0  0  0
    3.5821    0.8183   -2.1124 C   0  0  0  0  0  0  0  0  0  0  0  0
    3.0547    0.3175    0.5213 P   0  0  0  0  0  0  0  0  0  0  0  0
    2.0214    1.5525    0.4422 O   0  0  0  0  0  0  0  0  0  0  0  0
    0.8290    1.6339   -0.2466 C   0  0  0  0  0  0  0  0  0  0  0  0
   -0.1921    0.6454   -0.2632 C   0  0  0  0  0  0  0  0  0  0  0  0
   -1.3205    0.9256   -1.1312 C   0  0  0  0  0  0  0  0  0  0  0  0
   -2.3161   -0.0322   -1.4622 C   0  0  0  0  0  0  0  0  0  0  0  0
   -3.4102    0.2593   -2.2834 C   0  0  0  0  0  0  0  0  0  0  0  0
   -3.5427    1.5253   -2.8310 C   0  0  0  0  0  0  0  0  0  0  0  0
   -2.5632    2.4811   -2.5826 C   0  0  0  0  0  0  0  0  0  0  0  0
   -1.4544    2.1914   -1.7672 C   0  0  0  0  0  0  0  0  0  0  0  0
   -0.4703    3.1627   -1.6038 C   0  0  0  0  0  0  0  0  0  0  0  0
    0.6667    2.8803   -0.8665 C   0  0  0  0  0  0  0  0  0  0  0  0
   -0.1005   -0.5617    0.5420 C   0  0  0  0  0  0  0  0  0  0  0  0
    1.0863   -1.3195    0.5187 C   0  0  0  0  0  0  0  0  0  0  0  0
    1.2061   -2.5779    1.1117 C   0  0  0  0  0  0  0  0  0  0  0  0
    0.1421   -3.1078    1.8227 C   0  0  0  0  0  0  0  0  0  0  0  0
   -1.0318   -2.3702    1.9848 C   0  0  0  0  0  0  0  0  0  0  0  0
   -1.1603   -1.0882    1.3784 C   0  0  0  0  0  0  0  0  0  0  0  0
   -2.3418   -0.3675    1.6913 C   0  0  0  0  0  0  0  0  0  0  0  0
   -3.3657   -0.9041    2.4766 C   0  0  0  0  0  0  0  0  0  0  0  0
   -3.2340   -2.1773    3.0057 C   0  0  0  0  0  0  0  0  0  0  0  0
   -2.0690   -2.9007    2.7695 C   0  0  0  0  0  0  0  0  0  0  0  0
    2.1887   -0.8648   -0.1650 O   0  0  0  0  0  0  0  0  0  0  0  0
    6.0535    0.2100   -1.4979 H   0  0  0  0  0  0  0  0  0  0  0  0
    5.8040   -0.2576    0.1726 H   0  0  0  0  0  0  0  0  0  0  0  0
    5.0522   -1.2104   -1.1319 H   0  0  0  0  0  0  0  0  0  0  0  0
    4.3746    1.0979   -2.8183 H   0  0  0  0  0  0  0  0  0  0  0  0
    2.8464    1.6268   -2.1738 H   0  0  0  0  0  0  0  0  0  0  0  0
    3.1216   -0.1070   -2.4826 H   0  0  0  0  0  0  0  0  0  0  0  0
   -2.2413   -1.0532   -1.0905 H   0  0  0  0  0  0  0  0  0  0  0  0
   -4.1485   -0.5105   -2.4970 H   0  0  0  0  0  0  0  0  0  0  0  0
   -4.3858    1.7574   -3.4746 H   0  0  0  0  0  0  0  0  0  0  0  0
   -2.6605    3.4559   -3.0546 H   0  0  0  0  0  0  0  0  0  0  0  0
   -0.5574    4.1339   -2.0828 H   0  0  0  0  0  0  0  0  0  0  0  0
    1.4502    3.6298   -0.7792 H   0  0  0  0  0  0  0  0  0  0  0  0
    2.1325   -3.1370    1.0196 H   0  0  0  0  0  0  0  0  0  0  0  0
    0.2532   -4.0881    2.2803 H   0  0  0  0  0  0  0  0  0  0  0  0
   -2.4769    0.6508    1.3294 H   0  0  0  0  0  0  0  0  0  0  0  0
   -4.2591   -0.3181    2.6714 H   0  0  0  0  0  0  0  0  0  0  0  0
   -4.0261   -2.6018    3.6162 H   0  0  0  0  0  0  0  0  0  0  0  0
   -1.9721   -3.8887    3.2167 H   0  0  0  0  0  0  0  0  0  0  0  0
  1  2  1  0
  2  3  1  0
  2  4  1  0
  4  5  1  0
  5  6  1  0
  6  7  1  0
  7  8  2  0
  8  9  1  0
  9 10  2  0
 10 11  1  0
 11 12  2  0
  8 13  1  0
 13 14  2  0
 14 15  1  0
  7 16  1  0
 16 17  2  0
 17 18  1  0
 18 19  2  0
 19 20  1  0
 20 21  1  0
 21 22  2  0
 22 23  1  0
 23 24  2  0
 24 25  1  0
 17 26  1  0
 26  4  1  0
 15  6  2  0
 13 12  1  0
 21 16  1  0
 25 20  2  0
  1 27  1  0
  1 28  1  0
  1 29  1  0
  3 30  1  0
  3 31  1  0
  3 32  1  0
  9 33  1  0
 10 34  1  0
 11 35  1  0
 12 36  1  0
 14 37  1  0
 15 38  1  0
 18 39  1  0
 19 40  1  0
 22 41  1  0
 23 42  1  0
 24 43  1  0
 25 44  1  0
M  END
